<!-- <configuration>
  <input>
    <net-file value="heterogeneous.net.xml"/>
    <route-files value="heterogeneous.rou.xml"/>
  </input>
  <time>
    <begin value="0"/>
    <end value="500"/>
    <step-length value="0.1"/>
  </time>
  <gui_only>
    <gui-settings-file value="gui-settings.xml"/>
   </gui_only>
</configuration>
-->

<configuration xmlns:xsi="http://www.w3.org/2001/XMLSchema-instance" xsi:noNamespaceSchemaLocation="http://sumo.dlr.de/xsd/sumoConfiguration.xsd">

    <input>
        <net-file value="heterogeneous.net.xml"/>
        <route-files value="heterogeneous.rou.xml"/>
        <additional-files value="osm.poly.xml"/>
    </input>

    <processing>
        <ignore-route-errors value="true"/>
    </processing>

    <routing>
        <device.rerouting.adaptation-steps value="18"/>
        <device.rerouting.adaptation-interval value="10"/>
    </routing>

    <report>
        <verbose value="true"/>
        <duration-log.statistics value="true"/>
        <no-step-log value="true"/>
    </report>

    <gui_only>
        <gui-settings-file value="osm.view.xml"/>
    </gui_only>

</configuration>