<?xml version="1.0" encoding="UTF-8"?>

<!-- generated on Tue Feb  1 15:43:26 2022 by Eclipse SUMO netconvert Version 1.8.0
<configuration xmlns:xsi="http://www.w3.org/2001/XMLSchema-instance" xsi:noNamespaceSchemaLocation="http://sumo.dlr.de/xsd/netconvertConfiguration.xsd">

    <input>
        <type-files value="/home/skela/Documents/WORKSPACE/software/sumo-all-1.8.0/sumo-1.8.0/data/typemap/osmNetconvert.typ.xml"/>
        <osm-files value="osm_bbox.osm.xml"/>
    </input>

    <output>
        <output-file value="osm.net.xml"/>
        <output.street-names value="true"/>
        <output.original-names value="true"/>
    </output>

    <projection>
        <proj.utm value="true"/>
    </projection>

    <processing>
        <geometry.remove value="true"/>
        <roundabouts.guess value="true"/>
    </processing>

    <tls_building>
        <tls.discard-simple value="true"/>
        <tls.join value="true"/>
        <tls.guess-signals value="true"/>
        <tls.default-type value="actuated"/>
    </tls_building>

    <ramp_guessing>
        <ramps.guess value="true"/>
    </ramp_guessing>

    <junctions>
        <junctions.join value="true"/>
        <junctions.corner-detail value="5"/>
    </junctions>

    <report>
        <verbose value="true"/>
        <aggregate-warnings value="5"/>
    </report>

</configuration>
-->

<net version="1.6" junctionCornerDetail="5" limitTurnSpeed="5.50" xmlns:xsi="http://www.w3.org/2001/XMLSchema-instance" xsi:noNamespaceSchemaLocation="http://sumo.dlr.de/xsd/net_file.xsd">

    <location netOffset="-425127.48,-4158124.07" convBoundary="0.00,0.00,4511.83,2963.14" origBoundary="14.152118,37.567450,14.203263,37.593929" projParameter="+proj=utm +zone=33 +ellps=WGS84 +datum=WGS84 +units=m +no_defs"/>

    <type id="highway.bridleway" priority="1" numLanes="1" speed="2.78" allow="pedestrian" oneway="1" width="2.00"/>
    <type id="highway.bus_guideway" priority="1" numLanes="1" speed="27.78" allow="bus" oneway="1"/>
    <type id="highway.cycleway" priority="1" numLanes="1" speed="8.33" allow="bicycle" oneway="0" width="1.00"/>
    <type id="highway.footway" priority="1" numLanes="1" speed="2.78" allow="pedestrian" oneway="1" width="2.00"/>
    <type id="highway.ford" priority="1" numLanes="1" speed="2.78" allow="army" oneway="0"/>
    <type id="highway.living_street" priority="2" numLanes="1" speed="2.78" disallow="tram rail_urban rail rail_electric rail_fast ship" oneway="0"/>
    <type id="highway.motorway" priority="14" numLanes="2" speed="39.44" allow="private emergency authority army vip passenger hov taxi bus coach delivery truck trailer motorcycle evehicle custom1 custom2" oneway="1"/>
    <type id="highway.motorway_link" priority="9" numLanes="1" speed="22.22" allow="private emergency authority army vip passenger hov taxi bus coach delivery truck trailer motorcycle evehicle custom1 custom2" oneway="1"/>
    <type id="highway.path" priority="1" numLanes="1" speed="2.78" allow="pedestrian bicycle" oneway="0" width="2.00"/>
    <type id="highway.pedestrian" priority="1" numLanes="1" speed="2.78" allow="pedestrian" oneway="1" width="2.00"/>
    <type id="highway.primary" priority="12" numLanes="2" speed="27.78" disallow="tram rail_urban rail rail_electric rail_fast ship" oneway="0"/>
    <type id="highway.primary_link" priority="7" numLanes="1" speed="22.22" disallow="tram rail_urban rail rail_electric rail_fast ship" oneway="0"/>
    <type id="highway.raceway" priority="15" numLanes="2" speed="83.33" allow="vip" oneway="0"/>
    <type id="highway.residential" priority="3" numLanes="1" speed="13.89" disallow="tram rail_urban rail rail_electric rail_fast ship" oneway="0"/>
    <type id="highway.secondary" priority="11" numLanes="1" speed="27.78" disallow="tram rail_urban rail rail_electric rail_fast ship" oneway="0"/>
    <type id="highway.secondary_link" priority="6" numLanes="1" speed="22.22" disallow="tram rail_urban rail rail_electric rail_fast ship" oneway="0"/>
    <type id="highway.service" priority="1" numLanes="1" speed="5.56" allow="pedestrian delivery bicycle" oneway="0"/>
    <type id="highway.stairs" priority="1" numLanes="1" speed="1.39" allow="pedestrian" oneway="1" width="2.00"/>
    <type id="highway.step" priority="1" numLanes="1" speed="1.39" allow="pedestrian" oneway="1" width="2.00"/>
    <type id="highway.steps" priority="1" numLanes="1" speed="1.39" allow="pedestrian" oneway="1" width="2.00"/>
    <type id="highway.tertiary" priority="10" numLanes="1" speed="22.22" disallow="tram rail_urban rail rail_electric rail_fast ship" oneway="0"/>
    <type id="highway.tertiary_link" priority="5" numLanes="1" speed="22.22" disallow="tram rail_urban rail rail_electric rail_fast ship" oneway="0"/>
    <type id="highway.track" priority="1" numLanes="1" speed="5.56" allow="pedestrian motorcycle moped bicycle" oneway="0"/>
    <type id="highway.trunk" priority="13" numLanes="2" speed="27.78" disallow="pedestrian bicycle tram rail_urban rail rail_electric rail_fast ship" oneway="0"/>
    <type id="highway.trunk_link" priority="8" numLanes="1" speed="22.22" disallow="pedestrian bicycle tram rail_urban rail rail_electric rail_fast ship" oneway="0"/>
    <type id="highway.unclassified" priority="4" numLanes="1" speed="13.89" disallow="tram rail_urban rail rail_electric rail_fast ship" oneway="0"/>
    <type id="highway.unsurfaced" priority="1" numLanes="1" speed="8.33" disallow="tram rail_urban rail rail_electric rail_fast ship" oneway="0"/>
    <type id="railway.highspeed" priority="21" numLanes="1" speed="69.44" allow="rail_fast" oneway="1"/>
    <type id="railway.light_rail" priority="19" numLanes="1" speed="27.78" allow="rail_urban" oneway="1"/>
    <type id="railway.preserved" priority="16" numLanes="1" speed="27.78" allow="rail" oneway="1"/>
    <type id="railway.rail" priority="20" numLanes="1" speed="44.44" allow="rail" oneway="1"/>
    <type id="railway.subway" priority="18" numLanes="1" speed="27.78" allow="rail_urban" oneway="1"/>
    <type id="railway.tram" priority="17" numLanes="1" speed="13.89" allow="tram" oneway="1"/>

    <edge id=":1611130396_0" function="internal">
        <lane id=":1611130396_0_0" index="0" disallow="tram rail_urban rail rail_electric rail_fast ship" speed="9.79" length="12.96" shape="1281.77,2212.83 1279.29,2213.07 1276.73,2214.29 1274.10,2216.51 1271.40,2219.72"/>
    </edge>
    <edge id=":1611130396_1" function="internal">
        <lane id=":1611130396_1_0" index="0" disallow="tram rail_urban rail rail_electric rail_fast ship" speed="27.78" length="15.83" shape="1281.77,2212.83 1265.97,2211.94"/>
    </edge>
    <edge id=":1611130396_2" function="internal">
        <lane id=":1611130396_2_0" index="0" disallow="tram rail_urban rail rail_electric rail_fast ship" speed="3.65" length="2.34" shape="1281.77,2212.83 1280.66,2211.91 1280.35,2211.07"/>
    </edge>
    <edge id=":1611130396_9" function="internal">
        <lane id=":1611130396_9_0" index="0" disallow="tram rail_urban rail rail_electric rail_fast ship" speed="3.65" length="2.34" shape="1280.35,2211.07 1280.83,2210.32 1282.11,2209.65"/>
    </edge>
    <edge id=":1611130396_3" function="internal">
        <lane id=":1611130396_3_0" index="0" disallow="tram rail_urban rail rail_electric rail_fast ship" speed="27.78" length="16.07" shape="1266.06,2208.74 1282.11,2209.65"/>
    </edge>
    <edge id=":1611130396_4" function="internal">
        <lane id=":1611130396_4_0" index="0" disallow="tram rail_urban rail rail_electric rail_fast ship" speed="7.38" length="7.20" shape="1266.06,2208.74 1271.34,2209.57 1272.79,2210.72"/>
    </edge>
    <edge id=":1611130396_5" function="internal">
        <lane id=":1611130396_5_0" index="0" disallow="tram rail_urban rail rail_electric rail_fast ship" speed="3.65" length="2.34" shape="1266.06,2208.74 1267.23,2209.57 1267.61,2210.38"/>
    </edge>
    <edge id=":1611130396_10" function="internal">
        <lane id=":1611130396_10_0" index="0" disallow="tram rail_urban rail rail_electric rail_fast ship" speed="7.38" length="10.25" shape="1272.79,2210.72 1273.99,2211.67 1274.01,2215.06 1271.40,2219.72"/>
    </edge>
    <edge id=":1611130396_11" function="internal">
        <lane id=":1611130396_11_0" index="0" disallow="tram rail_urban rail rail_electric rail_fast ship" speed="3.65" length="2.34" shape="1267.61,2210.38 1267.19,2211.17 1265.97,2211.94"/>
    </edge>
    <edge id=":1611130396_6" function="internal">
        <lane id=":1611130396_6_0" index="0" disallow="tram rail_urban rail rail_electric rail_fast ship" speed="5.59" length="9.35" shape="1268.83,2217.82 1270.23,2215.32 1270.21,2213.51 1268.79,2212.38 1265.97,2211.94"/>
    </edge>
    <edge id=":1611130396_7" function="internal">
        <lane id=":1611130396_7_0" index="0" disallow="tram rail_urban rail rail_electric rail_fast ship" speed="10.93" length="16.28" shape="1268.83,2217.82 1272.12,2213.98 1275.43,2211.33 1278.76,2209.89 1282.11,2209.65"/>
    </edge>
    <edge id=":1611130396_8" function="internal">
        <lane id=":1611130396_8_0" index="0" disallow="tram rail_urban rail rail_electric rail_fast ship" speed="3.65" length="4.67" shape="1268.83,2217.82 1270.19,2217.33 1271.07,2217.48 1271.47,2218.28 1271.40,2219.72"/>
    </edge>
    <edge id=":1611130485_0" function="internal">
        <lane id=":1611130485_0_0" index="0" disallow="tram rail_urban rail rail_electric rail_fast ship" speed="6.76" length="16.75" shape="1465.52,2955.99 1462.11,2960.36 1459.50,2961.45 1457.69,2959.27 1456.69,2953.82"/>
    </edge>
    <edge id=":1611130485_1" function="internal">
        <lane id=":1611130485_1_0" index="0" disallow="tram rail_urban rail rail_electric rail_fast ship" speed="4.26" length="5.58" shape="1459.88,2953.55 1460.21,2955.37 1460.81,2956.09 1461.68,2955.73 1462.82,2954.27"/>
    </edge>
    <edge id=":1611130495_0" function="internal">
        <lane id=":1611130495_0_0" index="0" disallow="tram rail_urban rail rail_electric rail_fast ship" speed="6.45" length="9.03" shape="1224.44,2293.56 1222.30,2292.31 1220.28,2292.06 1218.39,2292.81 1216.63,2294.57"/>
    </edge>
    <edge id=":1611130495_1" function="internal">
        <lane id=":1611130495_1_0" index="0" disallow="tram rail_urban rail rail_electric rail_fast ship" speed="8.14" length="14.20" shape="1224.44,2293.56 1221.73,2290.73 1220.52,2287.72 1220.79,2284.51 1222.56,2281.12"/>
    </edge>
    <edge id=":1611130495_2" function="internal">
        <lane id=":1611130495_2_0" index="0" disallow="tram rail_urban rail rail_electric rail_fast ship" speed="3.65" length="4.67" shape="1224.44,2293.56 1224.00,2292.19 1224.18,2291.31 1224.99,2290.94 1226.43,2291.06"/>
    </edge>
    <edge id=":1611130495_3" function="internal">
        <lane id=":1611130495_3_0" index="0" disallow="tram rail_urban rail rail_electric rail_fast ship" speed="6.67" length="9.21" shape="1225.16,2283.00 1224.02,2285.18 1223.86,2287.25 1224.66,2289.21 1226.43,2291.06"/>
    </edge>
    <edge id=":1611130495_4" function="internal">
        <lane id=":1611130495_4_0" index="0" disallow="tram rail_urban rail rail_electric rail_fast ship" speed="27.78" length="14.37" shape="1225.16,2283.00 1216.63,2294.57"/>
    </edge>
    <edge id=":1611130495_5" function="internal">
        <lane id=":1611130495_5_0" index="0" disallow="tram rail_urban rail rail_electric rail_fast ship" speed="3.65" length="2.34" shape="1225.16,2283.00 1223.81,2283.50 1222.92,2283.36"/>
    </edge>
    <edge id=":1611130495_9" function="internal">
        <lane id=":1611130495_9_0" index="0" disallow="tram rail_urban rail rail_electric rail_fast ship" speed="3.65" length="2.34" shape="1222.92,2283.36 1222.51,2282.57 1222.56,2281.12"/>
    </edge>
    <edge id=":1611130495_6" function="internal">
        <lane id=":1611130495_6_0" index="0" disallow="tram rail_urban rail rail_electric rail_fast ship" speed="27.78" length="14.31" shape="1214.07,2292.64 1222.56,2281.12"/>
    </edge>
    <edge id=":1611130495_7" function="internal">
        <lane id=":1611130495_7_0" index="0" disallow="tram rail_urban rail rail_electric rail_fast ship" speed="7.96" length="5.83" shape="1214.07,2292.64 1216.86,2289.87 1218.62,2289.17"/>
    </edge>
    <edge id=":1611130495_8" function="internal">
        <lane id=":1611130495_8_0" index="0" disallow="tram rail_urban rail rail_electric rail_fast ship" speed="3.65" length="2.34" shape="1214.07,2292.64 1215.43,2292.16 1216.31,2292.33"/>
    </edge>
    <edge id=":1611130495_10" function="internal">
        <lane id=":1611130495_10_0" index="0" disallow="tram rail_urban rail rail_electric rail_fast ship" speed="7.96" length="8.46" shape="1218.62,2289.17 1219.84,2288.68 1223.04,2289.08 1226.43,2291.06"/>
    </edge>
    <edge id=":1611130495_11" function="internal">
        <lane id=":1611130495_11_0" index="0" disallow="tram rail_urban rail rail_electric rail_fast ship" speed="3.65" length="2.34" shape="1216.31,2292.33 1216.71,2293.13 1216.63,2294.57"/>
    </edge>
    <edge id=":1611130617_0" function="internal">
        <lane id=":1611130617_0_0" index="0" disallow="tram rail_urban rail rail_electric rail_fast ship" speed="27.78" length="14.56" shape="1141.49,2506.63 1130.70,2496.85"/>
    </edge>
    <edge id=":1611130617_1" function="internal">
        <lane id=":1611130617_1_0" index="0" disallow="tram rail_urban rail rail_electric rail_fast ship" speed="7.19" length="8.16" shape="1141.49,2506.63 1137.26,2501.85 1136.72,2500.15"/>
    </edge>
    <edge id=":1611130617_2" function="internal">
        <lane id=":1611130617_2_0" index="0" disallow="tram rail_urban rail rail_electric rail_fast ship" speed="3.65" length="2.34" shape="1141.49,2506.63 1141.16,2505.23 1141.42,2504.37"/>
    </edge>
    <edge id=":1611130617_9" function="internal">
        <lane id=":1611130617_9_0" index="0" disallow="tram rail_urban rail rail_electric rail_fast ship" speed="7.19" length="10.02" shape="1136.72,2500.15 1136.17,2498.40 1138.22,2496.31 1143.42,2495.55"/>
    </edge>
    <edge id=":1611130617_10" function="internal">
        <lane id=":1611130617_10_0" index="0" disallow="tram rail_urban rail rail_electric rail_fast ship" speed="3.65" length="2.34" shape="1141.42,2504.37 1142.26,2504.06 1143.68,2504.30"/>
    </edge>
    <edge id=":1611130617_3" function="internal">
        <lane id=":1611130617_3_0" index="0" disallow="tram rail_urban rail rail_electric rail_fast ship" speed="5.36" length="9.35" shape="1145.04,2498.73 1142.26,2499.11 1141.11,2500.17 1141.58,2501.90 1143.68,2504.30"/>
    </edge>
    <edge id=":1611130617_4" function="internal">
        <lane id=":1611130617_4_0" index="0" disallow="tram rail_urban rail rail_electric rail_fast ship" speed="13.45" length="14.81" shape="1145.04,2498.73 1141.23,2498.92 1137.42,2499.04 1133.84,2498.53 1130.70,2496.85"/>
    </edge>
    <edge id=":1611130617_5" function="internal">
        <lane id=":1611130617_5_0" index="0" disallow="tram rail_urban rail rail_electric rail_fast ship" speed="3.79" length="5.22" shape="1145.04,2498.73 1143.45,2498.55 1142.64,2497.95 1142.63,2496.96 1143.42,2495.55"/>
    </edge>
    <edge id=":1611130617_6" function="internal">
        <lane id=":1611130617_6_0" index="0" disallow="tram rail_urban rail rail_electric rail_fast ship" speed="11.70" length="11.12" shape="1132.79,2494.43 1135.35,2495.99 1137.65,2496.24 1140.18,2495.86 1143.42,2495.55"/>
    </edge>
    <edge id=":1611130617_7" function="internal">
        <lane id=":1611130617_7_0" index="0" disallow="tram rail_urban rail rail_electric rail_fast ship" speed="27.78" length="14.70" shape="1132.79,2494.43 1143.68,2504.30"/>
    </edge>
    <edge id=":1611130617_8" function="internal">
        <lane id=":1611130617_8_0" index="0" disallow="tram rail_urban rail rail_electric rail_fast ship" speed="3.65" length="2.34" shape="1132.79,2494.43 1133.18,2495.82 1132.96,2496.69"/>
    </edge>
    <edge id=":1611130617_11" function="internal">
        <lane id=":1611130617_11_0" index="0" disallow="tram rail_urban rail rail_electric rail_fast ship" speed="3.65" length="2.34" shape="1132.96,2496.69 1132.13,2497.03 1130.70,2496.85"/>
    </edge>
    <edge id=":1611130667_0" function="internal">
        <lane id=":1611130667_0_0" index="0" disallow="tram rail_urban rail rail_electric rail_fast ship" speed="27.78" length="14.71" shape="1196.36,2558.10 1185.57,2548.10"/>
    </edge>
    <edge id=":1611130667_1" function="internal">
        <lane id=":1611130667_1_0" index="0" disallow="tram rail_urban rail rail_electric rail_fast ship" speed="7.54" length="6.26" shape="1196.36,2558.10 1193.55,2554.71 1193.10,2552.90"/>
    </edge>
    <edge id=":1611130667_2" function="internal">
        <lane id=":1611130667_2_0" index="0" disallow="tram rail_urban rail rail_electric rail_fast ship" speed="3.65" length="2.34" shape="1196.36,2558.10 1196.01,2556.70 1196.26,2555.84"/>
    </edge>
    <edge id=":1611130667_9" function="internal">
        <lane id=":1611130667_9_0" index="0" disallow="tram rail_urban rail rail_electric rail_fast ship" speed="7.54" length="8.87" shape="1193.10,2552.90 1192.76,2551.54 1194.00,2548.58 1197.26,2545.83"/>
    </edge>
    <edge id=":1611130667_10" function="internal">
        <lane id=":1611130667_10_0" index="0" disallow="tram rail_urban rail rail_electric rail_fast ship" speed="3.65" length="2.34" shape="1196.26,2555.84 1197.09,2555.51 1198.52,2555.73"/>
    </edge>
    <edge id=":1611130667_3" function="internal">
        <lane id=":1611130667_3_0" index="0" disallow="tram rail_urban rail rail_electric rail_fast ship" speed="7.65" length="26.67" shape="1199.06,2550.59 1191.18,2545.85 1188.46,2545.13 1190.91,2548.42 1198.52,2555.73"/>
    </edge>
    <edge id=":1611130667_4" function="internal">
        <lane id=":1611130667_4_0" index="0" disallow="tram rail_urban rail rail_electric rail_fast ship" speed="20.84" length="13.99" shape="1199.06,2550.59 1195.69,2549.54 1192.10,2549.61 1188.62,2549.55 1185.57,2548.10"/>
    </edge>
    <edge id=":1611130667_5" function="internal">
        <lane id=":1611130667_5_0" index="0" disallow="tram rail_urban rail rail_electric rail_fast ship" speed="5.26" length="7.43" shape="1199.06,2550.59 1196.83,2550.07 1195.78,2549.11 1195.93,2547.70 1197.26,2545.83"/>
    </edge>
    <edge id=":1611130667_6" function="internal">
        <lane id=":1611130667_6_0" index="0" disallow="tram rail_urban rail rail_electric rail_fast ship" speed="7.65" length="10.30" shape="1187.76,2545.77 1189.78,2547.12 1192.04,2547.58 1194.53,2547.15 1197.26,2545.83"/>
    </edge>
    <edge id=":1611130667_7" function="internal">
        <lane id=":1611130667_7_0" index="0" disallow="tram rail_urban rail rail_electric rail_fast ship" speed="27.78" length="14.67" shape="1187.76,2545.77 1198.52,2555.73"/>
    </edge>
    <edge id=":1611130667_8" function="internal">
        <lane id=":1611130667_8_0" index="0" disallow="tram rail_urban rail rail_electric rail_fast ship" speed="3.65" length="2.34" shape="1187.76,2545.77 1188.08,2547.17 1187.83,2548.03"/>
    </edge>
    <edge id=":1611130667_11" function="internal">
        <lane id=":1611130667_11_0" index="0" disallow="tram rail_urban rail rail_electric rail_fast ship" speed="3.65" length="2.34" shape="1187.83,2548.03 1186.99,2548.34 1185.57,2548.10"/>
    </edge>
    <edge id=":1819390472_0" function="internal">
        <lane id=":1819390472_0_0" index="0" disallow="tram rail_urban rail rail_electric rail_fast ship" speed="13.89" length="15.05" shape="1573.28,2175.23 1572.16,2171.65 1571.15,2168.02 1570.26,2164.36 1569.50,2160.67"/>
    </edge>
    <edge id=":1819390472_1" function="internal">
        <lane id=":1819390472_1_0" index="0" disallow="tram rail_urban rail rail_electric rail_fast ship" speed="7.82" length="6.26" shape="1573.28,2175.23 1572.56,2171.23 1573.10,2169.10"/>
    </edge>
    <edge id=":1819390472_2" function="internal">
        <lane id=":1819390472_2_0" index="0" disallow="tram rail_urban rail rail_electric rail_fast ship" speed="3.65" length="2.34" shape="1573.28,2175.23 1573.66,2173.84 1574.30,2173.21"/>
    </edge>
    <edge id=":1819390472_9" function="internal">
        <lane id=":1819390472_9_0" index="0" disallow="tram rail_urban rail rail_electric rail_fast ship" speed="7.82" length="8.36" shape="1573.10,2169.10 1573.36,2168.08 1575.66,2165.81 1579.48,2164.39"/>
    </edge>
    <edge id=":1819390472_10" function="internal">
        <lane id=":1819390472_10_0" index="0" disallow="tram rail_urban rail rail_electric rail_fast ship" speed="3.65" length="2.34" shape="1574.30,2173.21 1575.18,2173.34 1576.32,2174.22"/>
    </edge>
    <edge id=":1819390472_3" function="internal">
        <lane id=":1819390472_3_0" index="0" disallow="tram rail_urban rail rail_electric rail_fast ship" speed="6.28" length="9.04" shape="1580.15,2167.52 1577.79,2168.39 1576.36,2169.80 1575.87,2171.75 1576.32,2174.22"/>
    </edge>
    <edge id=":1819390472_4" function="internal">
        <lane id=":1819390472_4_0" index="0" disallow="tram rail_urban rail rail_electric rail_fast ship" speed="8.01" length="14.52" shape="1580.15,2167.52 1576.11,2167.82 1572.99,2166.78 1570.78,2164.39 1569.50,2160.67"/>
    </edge>
    <edge id=":1819390472_5" function="internal">
        <lane id=":1819390472_5_0" index="0" disallow="tram rail_urban rail rail_electric rail_fast ship" speed="3.65" length="4.67" shape="1580.15,2167.52 1578.81,2166.99 1578.25,2166.29 1578.47,2165.43 1579.48,2164.39"/>
    </edge>
    <edge id=":1819390472_6" function="internal">
        <lane id=":1819390472_6_0" index="0" disallow="tram rail_urban rail rail_electric rail_fast ship" speed="6.52" length="9.26" shape="1572.65,2160.09 1573.47,2162.44 1574.88,2163.94 1576.88,2164.59 1579.48,2164.39"/>
    </edge>
    <edge id=":1819390472_7" function="internal">
        <lane id=":1819390472_7_0" index="0" disallow="tram rail_urban rail rail_electric rail_fast ship" speed="13.89" length="14.62" shape="1572.65,2160.09 1573.39,2163.70 1574.24,2167.22 1575.21,2170.71 1576.32,2174.22"/>
    </edge>
    <edge id=":1819390472_8" function="internal">
        <lane id=":1819390472_8_0" index="0" disallow="tram rail_urban rail rail_electric rail_fast ship" speed="3.65" length="2.34" shape="1572.65,2160.09 1572.08,2161.41 1571.37,2161.95"/>
    </edge>
    <edge id=":1819390472_11" function="internal">
        <lane id=":1819390472_11_0" index="0" disallow="tram rail_urban rail rail_electric rail_fast ship" speed="3.65" length="2.34" shape="1571.37,2161.95 1570.51,2161.71 1569.50,2160.67"/>
    </edge>
    <edge id=":1819390474_0" function="internal">
        <lane id=":1819390474_0_0" index="0" disallow="tram rail_urban rail rail_electric rail_fast ship" speed="8.37" length="16.38" shape="1600.17,1965.70 1599.08,1963.35 1596.29,1961.97 1591.82,1961.57 1585.65,1962.15"/>
    </edge>
    <edge id=":1819390474_1" function="internal">
        <lane id=":1819390474_1_0" index="0" disallow="tram rail_urban rail rail_electric rail_fast ship" speed="10.10" length="20.14" shape="1600.17,1965.70 1598.93,1961.26 1596.09,1957.91 1591.64,1955.67 1585.59,1954.52"/>
    </edge>
    <edge id=":1819390474_2" function="internal">
        <lane id=":1819390474_2_0" index="0" disallow="tram rail_urban rail rail_electric rail_fast ship" speed="8.45" length="14.20" shape="1600.17,1965.70 1600.33,1961.75 1601.58,1958.67 1603.91,1956.44 1607.34,1955.07"/>
    </edge>
    <edge id=":1819390474_3" function="internal">
        <lane id=":1819390474_3_0" index="0" disallow="tram rail_urban rail rail_electric rail_fast ship" speed="3.65" length="4.67" shape="1600.17,1965.70 1600.86,1964.44 1601.62,1963.97 1602.46,1964.30 1603.36,1965.42"/>
    </edge>
    <edge id=":1819390474_4" function="internal">
        <lane id=":1819390474_4_0" index="0" disallow="tram rail_urban rail rail_electric rail_fast ship" speed="7.04" length="9.56" shape="1608.07,1958.19 1605.81,1959.10 1604.27,1960.61 1603.45,1962.72 1603.36,1965.42"/>
    </edge>
    <edge id=":1819390474_5" function="internal">
        <lane id=":1819390474_5_0" index="0" disallow="tram rail_urban rail rail_electric rail_fast ship" speed="13.89" length="22.77" shape="1608.07,1958.19 1585.65,1962.15"/>
    </edge>
    <edge id=":1819390474_6" function="internal">
        <lane id=":1819390474_6_0" index="0" disallow="tram rail_urban rail rail_electric rail_fast ship" speed="13.89" length="22.85" shape="1608.07,1958.19 1603.21,1958.16 1596.88,1956.95 1590.52,1955.44 1585.59,1954.52"/>
    </edge>
    <edge id=":1819390474_7" function="internal">
        <lane id=":1819390474_7_0" index="0" disallow="tram rail_urban rail rail_electric rail_fast ship" speed="3.65" length="2.68" shape="1608.07,1958.19 1606.72,1957.68 1606.15,1957.00 1606.23,1956.67"/>
    </edge>
    <edge id=":1819390474_16" function="internal">
        <lane id=":1819390474_16_0" index="0" disallow="tram rail_urban rail rail_electric rail_fast ship" speed="3.65" length="2.00" shape="1606.23,1956.67 1606.35,1956.13 1607.34,1955.07"/>
    </edge>
    <edge id=":1819390474_8" function="internal">
        <lane id=":1819390474_8_0" index="0" disallow="tram rail_urban rail rail_electric rail_fast ship" speed="13.89" length="20.95" shape="1586.80,1951.42 1591.42,1952.33 1597.11,1953.84 1602.78,1955.05 1607.34,1955.07"/>
    </edge>
    <edge id=":1819390474_9" function="internal">
        <lane id=":1819390474_9_0" index="0" disallow="tram rail_urban rail rail_electric rail_fast ship" speed="10.95" length="12.83" shape="1586.80,1951.42 1593.63,1952.79 1598.66,1955.59 1598.73,1955.67"/>
    </edge>
    <edge id=":1819390474_10" function="internal">
        <lane id=":1819390474_10_0" index="0" disallow="tram rail_urban rail rail_electric rail_fast ship" speed="5.98" length="4.19" shape="1586.80,1951.42 1589.97,1953.19 1590.09,1953.73"/>
    </edge>
    <edge id=":1819390474_11" function="internal">
        <lane id=":1819390474_11_0" index="0" disallow="tram rail_urban rail rail_electric rail_fast ship" speed="3.70" length="2.15" shape="1586.80,1951.42 1587.66,1952.65 1587.72,1953.29"/>
    </edge>
    <edge id=":1819390474_17" function="internal">
        <lane id=":1819390474_17_0" index="0" disallow="tram rail_urban rail rail_electric rail_fast ship" speed="10.95" length="11.02" shape="1598.73,1955.67 1601.91,1959.80 1603.36,1965.42"/>
    </edge>
    <edge id=":1819390474_18" function="internal">
        <lane id=":1819390474_18_0" index="0" disallow="tram rail_urban rail rail_electric rail_fast ship" speed="5.98" length="10.85" shape="1590.09,1953.73 1590.69,1956.64 1589.17,1960.17 1585.65,1962.15"/>
    </edge>
    <edge id=":1819390474_19" function="internal">
        <lane id=":1819390474_19_0" index="0" disallow="tram rail_urban rail rail_electric rail_fast ship" speed="3.70" length="2.71" shape="1587.72,1953.29 1587.75,1953.57 1587.06,1954.20 1585.59,1954.52"/>
    </edge>
    <edge id=":1819390474_12" function="internal">
        <lane id=":1819390474_12_0" index="0" disallow="tram rail_urban rail rail_electric rail_fast ship" speed="6.68" length="19.33" shape="1585.17,1958.99 1592.27,1957.63 1594.71,1956.44 1592.48,1955.40 1585.59,1954.52"/>
    </edge>
    <edge id=":1819390474_13" function="internal">
        <lane id=":1819390474_13_0" index="0" disallow="tram rail_urban rail rail_electric rail_fast ship" speed="13.89" length="22.51" shape="1585.17,1958.99 1607.34,1955.07"/>
    </edge>
    <edge id=":1819390474_14" function="internal">
        <lane id=":1819390474_14_0" index="0" disallow="tram rail_urban rail rail_electric rail_fast ship" speed="9.54" length="21.62" shape="1585.17,1958.99 1592.83,1958.40 1598.41,1959.28 1601.92,1961.62 1603.36,1965.42"/>
    </edge>
    <edge id=":1819390474_15" function="internal">
        <lane id=":1819390474_15_0" index="0" disallow="tram rail_urban rail rail_electric rail_fast ship" speed="3.65" length="4.67" shape="1585.17,1958.99 1586.48,1959.60 1586.99,1960.33 1586.72,1961.18 1585.65,1962.15"/>
    </edge>
    <edge id=":1819390478_0" function="internal">
        <lane id=":1819390478_0_0" index="0" disallow="tram rail_urban rail rail_electric rail_fast ship" speed="13.89" length="0.31" shape="1846.84,1823.16 1846.77,1822.86"/>
    </edge>
    <edge id=":1819390478_1" function="internal">
        <lane id=":1819390478_1_0" index="0" disallow="tram rail_urban rail rail_electric rail_fast ship" speed="13.89" length="0.28" shape="1849.91,1822.21 1849.96,1822.48"/>
    </edge>
    <edge id=":1819390480_0" function="internal">
        <lane id=":1819390480_0_0" index="0" disallow="tram rail_urban rail rail_electric rail_fast ship" speed="6.49" length="9.03" shape="1909.94,2094.96 1909.05,2092.65 1907.63,2091.18 1905.69,2090.57 1903.22,2090.80"/>
    </edge>
    <edge id=":1819390480_1" function="internal">
        <lane id=":1819390480_1_0" index="0" disallow="tram rail_urban rail rail_electric rail_fast ship" speed="13.89" length="14.41" shape="1909.94,2094.96 1906.66,2080.93"/>
    </edge>
    <edge id=":1819390480_2" function="internal">
        <lane id=":1819390480_2_0" index="0" disallow="tram rail_urban rail rail_electric rail_fast ship" speed="3.65" length="2.34" shape="1909.94,2094.96 1910.45,2093.61 1911.14,2093.04"/>
    </edge>
    <edge id=":1819390480_9" function="internal">
        <lane id=":1819390480_9_0" index="0" disallow="tram rail_urban rail rail_electric rail_fast ship" speed="3.65" length="2.34" shape="1911.14,2093.04 1912.01,2093.25 1913.06,2094.24"/>
    </edge>
    <edge id=":1819390480_3" function="internal">
        <lane id=":1819390480_3_0" index="0" disallow="tram rail_urban rail rail_electric rail_fast ship" speed="13.89" length="14.43" shape="1909.77,2080.19 1913.06,2094.24"/>
    </edge>
    <edge id=":1819390480_4" function="internal">
        <lane id=":1819390480_4_0" index="0" disallow="tram rail_urban rail rail_electric rail_fast ship" speed="8.02" length="5.96" shape="1909.77,2080.19 1910.13,2084.06 1909.50,2086.03"/>