<?xml version="1.0" encoding="UTF-8"?>

<!-- generated on Tue Feb  1 15:43:26 2022 by Eclipse SUMO polyconvert Version 1.8.0
<configuration xmlns:xsi="http://www.w3.org/2001/XMLSchema-instance" xsi:noNamespaceSchemaLocation="http://sumo.dlr.de/xsd/polyconvertConfiguration.xsd">

    <input>
        <net-file value="osm.net.xml"/>
        <osm-files value="osm_bbox.osm.xml"/>
        <osm.keep-full-type value="true"/>
        <type-file value="/home/skela/Documents/WORKSPACE/software/sumo-all-1.8.0/sumo-1.8.0/data/typemap/osmPolyconvert.typ.xml"/>
    </input>

    <output>
        <output-file value="osm.poly.xml"/>
    </output>

    <processing>
        <poi-layer-offset value="5"/>
    </processing>

    <report>
        <verbose value="true"/>
    </report>

</configuration>
-->

<additional xmlns:xsi="http://www.w3.org/2001/XMLSchema-instance" xsi:noNamespaceSchemaLocation="http://sumo.dlr.de/xsd/additional_file.xsd">
    <location netOffset="-425127.48,-4158124.07" convBoundary="-0.00,0.00,4511.83,2963.14" origBoundary="14.152118,37.567450,14.203263,37.593929" projParameter="+proj=utm +zone=33 +ellps=WGS84 +datum=WGS84 +units=m +no_defs"/>

    <poly id="152617497" type="landuse.residential" color="235,235,227" fill="0" layer="-3.00" shape="945.740009,2199.219709 916.855823,2199.954368 895.099539,2203.920936 880.480103,2211.130373 868.892928,2239.527598 894.074005,2247.325048 888.999138,2263.403492 925.112372,2276.285159 954.815312,2260.453185 958.941035,2244.860355 963.681750,2245.761228 968.991678,2257.031432 972.055922,2334.351669 968.849794,2347.118012 972.438478,2377.277206 940.640002,2370.947669 923.621069,2374.405921 930.457577,2397.457132 914.860036,2400.891633 915.049338,2422.115867 902.947807,2446.279119 918.165601,2452.745274 930.802464,2436.133389 946.311515,2422.780221 942.477788,2417.632747 988.292323,2402.600373 989.152973,2393.161429 982.007942,2388.975473 978.638321,2382.403608 1001.338849,2378.428836 1003.423482,2346.809947 1050.802349,2348.751384 1050.869514,2356.295804 1075.982815,2356.538285 1075.919918,2349.470938 1096.760087,2349.751511 1086.935877,2363.985832 1050.460357,2362.901338 1047.705687,2372.834247 1072.467646,2388.169880 1061.724563,2404.309762 1043.162325,2394.089516 1032.903595,2413.054507 1045.742593,2418.121840 1057.674293,2428.390017 1067.034262,2415.580028 1076.097905,2423.044378 1083.593194,2414.012418 1103.138156,2427.519407 1095.642420,2437.494480 1092.428096,2448.363497 1092.541426,2461.100255 1095.755871,2470.092390 1086.698465,2476.220094 1064.170199,2469.763225 1048.605263,2494.700494 1054.867745,2515.804083 1087.290343,2542.733051 1096.568210,2561.390992 1148.461459,2524.047599 1204.769588,2573.133435 1214.593881,2585.750633 1216.503831,2596.008205 1236.041372,2591.851344 1266.765055,2563.761846 1286.918699,2576.287438 1300.731771,2559.832122 1316.013510,2570.581335 1299.074041,2577.988156 1327.232917,2603.136194 1335.034522,2592.792462 1339.933129,2597.586704 1363.394993,2571.980817 1379.159059,2569.422232 1355.872005,2546.039408 1364.250713,2532.062326 1387.441223,2544.550142 1381.452888,2554.278587 1400.521930,2581.926283 1444.650851,2490.229629 1461.767236,2502.771444 1448.137682,2540.994434 1464.094548,2560.203884 1509.021384,2558.596831 1523.657451,2497.386049 1573.408323,2492.108420 1580.812810,2497.723915 1570.209244,2541.722944 1588.481503,2548.218789 1590.861224,2542.749816 1605.490688,2548.667636 1654.632117,2543.395873 1653.240587,2591.784977 1712.370635,2617.870277 1747.139684,2566.767918 1728.231804,2557.259332 1714.243632,2554.963900 1699.681836,2555.702652 1716.399466,2524.110213 1704.392477,2516.205136 1730.073611,2472.783403 1781.658132,2461.144176 1788.264455,2471.382657 1801.484937,2500.769326 1758.528324,2514.573663 1764.831624,2540.515065 1795.717118,2530.567445 1846.624193,2519.234166 1862.907201,2506.397419 1824.221161,2457.751100 1806.002282,2457.312460 1790.807915,2387.300025 1751.637546,2364.943760 1703.281419,2383.289697 1705.428956,2389.517568 1706.376434,2402.835017 1678.409587,2456.396177 1662.244906,2473.615007 1646.849158,2482.915919 1638.091880,2485.079232 1640.105581,2477.150285 1618.665030,2464.834933 1607.579292,2488.266923 1590.434021,2488.418434 1556.295421,2459.971515 1635.626445,2348.891448 1634.686199,2336.406111 1662.958414,2317.415994 1681.340807,2314.335581 1687.348656,2331.769212 1730.734500,2318.482237 1723.362735,2288.555874 1757.845326,2278.898180 1766.937622,2289.669506 1777.923896,2299.947035 1791.243030,2306.431518 1804.069284,2310.090988 1815.917085,2310.929723 1829.625232,2308.456698 1870.701290,2292.527868 1877.319272,2291.049374 1923.757543,2293.470094 1936.740918,2316.001979 1952.757607,2305.952758 1957.096576,2314.402727 1964.165996,2311.045178 1972.528859,2346.344381 1981.787135,2375.033847 1990.025533,2396.187288 2054.589194,2359.304213 2064.638064,2371.476594 2093.787175,2399.991551 2104.908940,2426.778541 2116.454105,2446.482847 2127.775280,2441.667896 2118.041382,2412.039327 2138.823948,2404.778024 2132.968597,2385.489787 2103.890522,2364.053053 2087.198253,2351.461827 2075.346455,2350.156727 2074.352098,2344.506709 2097.541754,2342.882922 2107.232158,2341.377646 2114.586345,2337.263228 2119.692284,2329.495904 2122.583002,2322.846481 2139.410739,2303.570083 2149.090775,2311.951111 2165.167243,2291.571799 2166.799635,2267.280360 2164.670517,2259.088300 2242.858108,2208.872469 2250.963845,2214.937332 2289.796748,2188.733563 2269.088808,2159.211989 2254.497046,2148.543761 2244.600919,2114.489346 2261.304981,2049.744647 2281.407407,2022.162599 2279.027941,1933.918168 1856.943045,1767.816773 1723.705276,1899.952021 1661.650556,1914.224829 1667.326978,1941.092618 1661.356138,1941.888730 1627.020366,1914.330885 1603.595801,1914.482322 1605.106980,1952.604516 1573.386457,1957.212096 1575.068024,2009.601716 1570.541536,2028.948056 1571.058963,2047.528602 1544.777075,2049.036942 1534.363434,2139.524844"/>
    <poly id="170793476" type="landuse.cemetery" color="194,194,130" fill="1" layer="-3.00" shape="1352.067328,1804.154572 1382.651575,1808.776666 1361.317576,1945.197478 1237.783601,1926.953766 1239.575115,1914.910227 1122.987367,1898.404028 1147.013159,1741.387348 1255.846850,1757.518932 1251.758170,1790.309433 1285.631965,1794.458148 1288.052953,1786.669749 1292.209859,1780.463716 1296.870007,1776.239333 1305.004458,1772.472340 1311.907054,1770.191996 1325.034188,1770.818981 1336.944626,1775.639814 1345.916864,1782.705831 1348.181122,1787.112901 1350.729953,1794.735171 1352.067328,1804.154572"/>
    <poly id="170842272" type="leisure.playground" color="207,245,201" fill="1" layer="-2.00" shape="1338.481701,2368.208967 1368.974976,2388.698488 1384.836194,2361.196142 1338.481701,2368.208967"/>
    <poly id="170842275" type="leisure.park" color="207,245,201" fill="1" layer="-2.00" shape="2208.907426,2055.618233 2205.170004,2034.181047 2244.098471,2026.872009 2238.942104,1979.516887 2271.283114,1994.323674 2305.867460,2022.325779 2259.381503,2041.839251 2208.907426,2055.618233"/>
    <poly id="170842424" type="leisure.park" color="207,245,201" fill="1" layer="-2.00" shape="1962.175247,1898.817422 1978.499635,1896.554669 2058.292857,1921.329158 2077.862265,1884.364437 2057.787593,1863.780844 2031.082080,1843.266629 1929.339540,1800.766045 1923.918944,1831.004790 1934.503466,1849.774180 1954.369601,1872.711579 1962.175247,1898.817422"/>
    <poly id="170843450" type="building.school" color="255,230,230" fill="1" layer="-1.00" shape="1564.546881,2310.707128 1560.584799,2294.997502 1557.941826,2295.664414 1556.093456,2288.335470 1557.370897,2288.013499 1554.900481,2278.237928 1628.068411,2259.927141 1637.895174,2298.852463 1625.199823,2302.026978 1621.429826,2287.059034 1624.874568,2286.196436 1621.113981,2271.294983 1571.169466,2283.786141 1577.162836,2307.544317 1564.546881,2310.707128"/>
    <poly id="170844877" type="amenity.parking" color="184,184,179" fill="1" layer="-1.00" shape="1241.549475,2297.380395 1268.827209,2260.933262 1254.552825,2250.341618 1252.092027,2253.625573 1227.283945,2286.788719 1233.683504,2291.547380 1241.549475,2297.380395"/>
    <poly id="170845302" type="leisure.park" color="207,245,201" fill="1" layer="-2.00" shape="2319.487318,2013.729597 2305.516063,1932.721037 2259.875788,1804.822459 2234.016140,1772.971620 2304.628472,1723.299984 2368.041761,1834.866057 2435.811416,1975.298488 2389.490619,1975.381436 2319.487318,2013.729597"/>
    <poly id="171037320" type="building.yes" color="255,230,230" fill="1" layer="-1.00" shape="1712.996475,2277.507349 1729.424971,2273.123908 1728.000885,2267.832776 1743.856703,2263.587563 1739.448018,2247.260446 1722.896252,2251.689335 1725.707748,2262.116583 1709.975149,2266.316361 1712.996475,2277.507349"/>
    <poly id="171037320#1" type="military.barracks" color="153,153,92" fill="1" layer="-2.00" shape="1712.996475,2277.507349 1729.424971,2273.123908 1728.000885,2267.832776 1743.856703,2263.587563 1739.448018,2247.260446 1722.896252,2251.689335 1725.707748,2262.116583 1709.975149,2266.316361 1712.996475,2277.507349"/>
    <poly id="171195367" type="amenity.parking" color="184,184,179" fill="1" layer="-1.00" shape="2241.693995,2112.251308 2223.443700,2084.117457 2252.635726,2064.045081 2241.693995,2112.251308"/>
    <poly id="171195409" type="leisure.park" color="207,245,201" fill="1" layer="-2.00" shape="1992.958721,2233.644477 1986.762905,2208.822634 2023.603852,2197.181415 2024.582230,2212.063091 1992.958721,2233.644477"/>
    <poly id="207782815" type="amenity.place_of_worship" color="237,199,199" fill="1" layer="-1.00" shape="1896.825855,2048.472432 1883.472140,2052.140538 1893.805158,2089.508291 1907.158816,2085.840200 1896.825855,2048.472432"/>
    <poly id="207782815#1" type="building.yes" color="255,230,230" fill="1" layer="-1.00" shape="1896.825855,2048.472432 1883.472140,2052.140538 1893.805158,2089.508291 1907.158816,2085.840200 1896.825855,2048.472432"/>
    <poly id="207782839" type="amenity.school" color="237,199,199" fill="1" layer="-1.00" shape="2044.535306,2186.711958 2078.035404,2178.706390 2075.176546,2166.859216 2068.991152,2168.344847 2068.358963,2165.731840 2073.725015,2164.453122 2068.336999,2142.109544 2067.367754,2142.339965 2066.314038,2137.977558 2068.111556,2137.551240 2065.481678,2126.645183 2018.579608,2137.864193 2027.953886,2176.738428 2029.592765,2176.346782 2033.175487,2191.183391 2031.536611,2191.575036 2033.341895,2199.070887 2046.743668,2195.868610 2044.535306,2186.711958"/>
    <poly id="207782839#1" type="building.yes" color="255,230,230" fill="1" layer="-1.00" shape="2044.535306,2186.711958 2078.035404,2178.706390 2075.176546,2166.859216 2068.991152,2168.344847 2068.358963,2165.731840 2073.725015,2164.453122 2068.336999,2142.109544 2067.367754,2142.339965 2066.314038,2137.977558 2068.111556,2137.551240 2065.481678,2126.645183 2018.579608,2137.864193 2027.953886,2176.738428 2029.592765,2176.346782 2033.175487,2191.183391 2031.536611,2191.575036 2033.341895,2199.070887 2046.743668,2195.868610 2044.535306,2186.711958"/>
    <poly id="207782840" type="amenity.school" color="237,199,199" fill="1" layer="-1.00" shape="2034.349878,2146.957185 2041.094078,2174.914292 2064.249819,2169.373981 2057.505694,2141.416856 2034.349878,2146.957185"/>
    <poly id="207782840#1" type="building.yes" color="255,230,230" fill="1" layer="-1.00" shape="2034.349878,2146.957185 2041.094078,2174.914292 2064.249819,2169.373981 2057.505694,2141.416856 2034.349878,2146.957185"/>
    <poly id="341864987" type="building.church" color="255,230,230" fill="1" layer="-1.00" shape="1586.368614,1895.505739 1583.246927,1902.967370 1565.114433,1895.460575 1554.763704,1920.206479 1527.928289,1909.092972 1541.400510,1876.874291 1586.368614,1895.505739"/>
    <poly id="451863072" type="amenity.recycling" color="237,199,199" fill="1" layer="-1.00" shape="2209.051293,2014.596639 2239.096086,2009.196192 2234.058030,1981.401529 2204.013139,1986.801992 2209.051293,2014.596639"/>
    <poly id="451863072#1" type="building.yes" color="255,230,230" fill="1" layer="-1.00" shape="2209.051293,2014.596639 2239.096086,2009.196192 2234.058030,1981.401529 2204.013139,1986.801992 2209.051293,2014.596639"/>
    <poly id="540664395" type="landuse.grass" color="194,194,130" fill="1" layer="-3.00" shape="2175.969150,2063.318751 2208.907426,2055.618233 2205.170004,2034.181047 2173.418932,2042.348280 2175.969150,2063.318751"/>
    <poly id="540673132" type="leisure.swimming_pool" color="207,245,201" fill="1" layer="-2.00" shape="2326.906059,1811.026350 2332.277713,1808.338620 2327.506338,1798.893646 2322.134679,1801.581379 2326.906059,1811.026350"/>
    <poly id="540673133" type="leisure.swimming_pool" color="207,245,201" fill="1" layer="-2.00" shape="2296.959890,1840.902416 2310.815167,1840.004492 2308.980390,1811.959858 2295.125066,1812.857784 2296.959890,1840.902416"/>
    <poly id="540673136" type="man_made.wastewater_plant" color="255,230,230" fill="1" layer="-1.00" shape="2549.716381,2229.380278 2583.187564,2238.286650 2604.260149,2183.157745 2605.615824,2148.239289 2549.964520,2148.491444 2557.018687,2197.006308 2549.716381,2229.380278"/>
    <poly id="540981699" type="building.yes" color="255,230,230" fill="1" layer="-1.00" shape="2334.901444,1929.623499 2346.480375,1926.925869 2344.838617,1919.927828 2333.259677,1922.625461 2334.901444,1929.623499"/>
    <poly id="540981699#1" type="leisure.park" color="207,245,201" fill="1" layer="-2.00" shape="2334.901444,1929.623499 2346.480375,1926.925869 2344.838617,1919.927828 2333.259677,1922.625461 2334.901444,1929.623499"/>
    <poly id="540981700" type="building.yes" color="255,230,230" fill="1" layer="-1.00" shape="2316.452205,1959.498819 2335.362639,1955.094889 2333.271844,1946.225626 2314.361488,1950.640656 2316.452205,1959.498819"/>
    <poly id="540981700#1" type="leisure.park" color="207,245,201" fill="1" layer="-2.00" shape="2316.452205,1959.498819 2335.362639,1955.094889 2333.271844,1946.225626 2314.361488,1950.640656 2316.452205,1959.498819"/>
    <poly id="669595272" type="landuse.residential" color="235,235,227" fill="0" layer="-3.00" shape="1534.363434,2139.524844 1515.373049,2138.794067 1515.607443,2121.371907 1460.182671,2116.336765 1429.231352,2126.963016 1405.089097,2127.764929 1407.761868,2105.538955 1381.094297,2104.355005 1392.816739,2087.019662 1384.903666,2084.848469 1390.241074,2054.432517 1363.003724,2051.744668 1361.815685,2068.132305 1339.509396,2063.902919 1332.174782,2088.134178 1355.670335,2090.067306 1354.250603,2119.161464 1320.137866,2123.757953 1317.135251,2132.661068 1276.475342,2124.822163 1265.470427,2203.066184 1233.444933,2202.041231 1235.210761,2182.142223 1178.347229,2181.116165 1178.009323,2199.726504 1127.541829,2199.065592 1133.802232,2141.490281 1144.187283,2111.839243 1126.429779,2100.823859 1117.756152,2117.389071 1100.775447,2109.329361 1089.678495,2129.411280 1097.790300,2134.065840 1085.736653,2154.788727 1037.917362,2128.296397 1022.487537,2161.532003 1006.007441,2158.128186 1027.048147,2113.447388 1003.741270,2104.944908 997.684289,2114.885054 973.224037,2106.759088 955.143789,2137.821511 973.761279,2154.165859 945.740009,2199.219709"/>
    <poly id="725716066" type="amenity.townhall" color="237,199,199" fill="1" layer="-1.00" shape="1957.109257,2235.513005 1963.720104,2260.331179 1987.960975,2242.664729 1984.750176,2227.958015 1957.109257,2235.513005"/>
    <poly id="725716066#1" type="building.public" color="255,230,230" fill="1" layer="-1.00" shape="1957.109257,2235.513005 1963.720104,2260.331179 1987.960975,2242.664729 1984.750176,2227.958015 1957.109257,2235.513005"/>
    <poly id="725716067" type="amenity.post_office" color="237,199,199" fill="1" layer="-1.00" shape="1671.157397,2253.987767 1688.897985,2250.202922 1685.794855,2235.750560 1668.054335,2239.546506 1671.157397,2253.987767"/>
    <poly id="725716067#1" type="building.yes" color="255,230,230" fill="1" layer="-1.00" shape="1671.157397,2253.987767 1688.897985,2250.202922 1685.794855,2235.750560 1668.054335,2239.546506 1671.157397,2253.987767"/>
    <poly id="812750282" type="building.roof" color="255,230,230" fill="1" layer="-1.00" shape="2218.498909,2064.954339 2219.421121,2071.448266 2230.065406,2069.934786 2229.143203,2063.440858 2218.498909,2064.954339"/>
    <poly id="895524008" type="amenity.school" color="237,199,199" fill="1" layer="-1.00" shape="1543.973542,2269.713267 1559.050905,2330.228493 1646.202341,2308.687468 1631.125583,2248.172094 1543.973542,2269.713267"/>
    <poly id="965965936" type="amenity.school" color="237,199,199" fill="1" layer="-1.00" shape="1189.607596,2319.522594 1151.237844,2318.920501 1153.284688,2256.167719 1236.408526,2256.372295 1189.607596,2319.522594"/>
    <poly id="965965940" type="building.yes" color="255,230,230" fill="1" layer="-1.00" shape="1189.764095,2302.356295 1173.768304,2301.743942 1174.219903,2289.967486 1168.187309,2289.743713 1168.762269,2274.959250 1182.982715,2275.498605 1183.254720,2268.350615 1193.721412,2268.756913 1192.620490,2296.894065 1189.979571,2296.795479 1189.764095,2302.356295"/>
    <poly id="965965946" type="amenity.fuel" color="237,199,199" fill="1" layer="-1.00" shape="1351.460394,2245.642786 1398.354665,2250.641806 1406.105093,2228.492890 1350.837216,2223.157522 1351.460394,2245.642786"/>
    <poly id="965965948" type="amenity.parking" color="184,184,179" fill="1" layer="-1.00" shape="1200.933642,2383.865268 1233.004564,2407.979640 1247.474390,2388.899847 1215.403341,2364.774325 1200.933642,2383.865268"/>
    <poi id="1819203921" type="amenity.fuel" color="237,199,199" layer="4.00" x="2212.50" y="2074.54"/>
    <poi id="1819432464" type="amenity.place_of_worship" color="237,199,199" layer="4.00" x="1966.57" y="2218.62"/>
    <poi id="1819434030" type="historic.memorial" color="128,255,128" layer="4.00" x="1854.94" y="1844.08"/>
    <poi id="1819440198" type="amenity.police" color="237,199,199" layer="4.00" x="1723.14" y="2260.32"/>
    <poi id="1819446719" type="amenity.drinking_water" color="237,199,199" layer="4.00" x="2386.83" y="2000.72"/>
    <poi id="1819473334" type="amenity.bar" color="237,199,199" layer="4.00" x="1943.79" y="2143.28"/>
    <poi id="1819473335" type="amenity.bar" color="237,199,199" layer="4.00" x="1927.33" y="2098.10"/>
    <poi id="1819797818" type="historic.monument" color="128,255,128" layer="4.00" x="2107.35" y="2330.04"/>
    <poi id="4002764819" type="shop.tobacco" color="237,199,255" layer="4.00" x="1887.68" y="2017.23"/>
    <poi id="4002802870" type="historic.monument" color="128,255,128" layer="4.00" x="1938.93" y="2150.78"/>
    <poi id="5229035892" type="amenity.bank" color="237,199,199" layer="4.00" x="1907.50" y="2034.31"/>
    <poi id="67255016" type="population.4448" color="51,128,255" layer="4.00" x="1910.16" y="2192.21"/>
</additional>
