<?xml version="1.0" encoding="UTF-8"?>

<!-- generated on Tue Feb  1 15:43:27 2022 by Eclipse SUMO duarouter Version 1.8.0
<configuration xmlns:xsi="http://www.w3.org/2001/XMLSchema-instance" xsi:noNamespaceSchemaLocation="http://sumo.dlr.de/xsd/duarouterConfiguration.xsd">

    <input>
        <net-file value="/home/skela/Documents/WORKSPACE/software/sumo-all-1.8.0/sumo-1.8.0/tools/2022-02-01-15-43-20/osm.net.xml"/>
        <route-files value="/home/skela/Documents/WORKSPACE/software/sumo-all-1.8.0/sumo-1.8.0/tools/2022-02-01-15-43-20/osm.passenger.trips.xml"/>
    </input>

    <output>
        <output-file value="/home/skela/Documents/WORKSPACE/software/sumo-all-1.8.0/sumo-1.8.0/tools/2022-02-01-15-43-20/osm.passenger.trips.xml.tmp"/>
        <write-trips value="true"/>
    </output>

    <time>
        <begin value="0"/>
        <end value="3600"/>
    </time>

    <report>
        <no-warnings value="true"/>
        <ignore-errors value="true"/>
        <no-step-log value="true"/>
    </report>

</configuration>
-->

<routes xmlns:xsi="http://www.w3.org/2001/XMLSchema-instance" xsi:noNamespaceSchemaLocation="http://sumo.dlr.de/xsd/routes_file.xsd">
    <vType id="veh_passenger" vClass="passenger"/>
    <trip id="veh0" type="veh_passenger" depart="0.00" departLane="best" from="170806375#1" to="-170794674#16"/>
    <trip id="veh1" type="veh_passenger" depart="7.09" departLane="best" from="171196123#3" to="171195921#5"/>
    <trip id="veh2" type="veh_passenger" depart="14.18" departLane="best" from="-540762178#1" to="-170794674#5"/>
    <trip id="veh3" type="veh_passenger" depart="21.26" departLane="best" departSpeed="max" from="-205305449" to="170794673#3"/>
    <trip id="veh4" type="veh_passenger" depart="28.35" departLane="best" from="-170794674#2" to="-171195368#1"/>
    <trip id="veh5" type="veh_passenger" depart="35.44" departLane="best" departSpeed="max" from="170843710#0" to="170795796#0"/>
    <trip id="veh6" type="veh_passenger" depart="42.53" departLane="best" from="-514868718#1" to="170797670#0"/>
    <trip id="veh7" type="veh_passenger" depart="49.61" departLane="best" from="540513775#6" to="-170794672#5"/>
    <trip id="veh8" type="veh_passenger" depart="56.70" departLane="best" from="-170795802#1" to="-170797669#0"/>
    <trip id="veh9" type="veh_passenger" depart="63.79" departLane="best" from="540663772#1" to="170806375#0"/>
    <trip id="veh10" type="veh_passenger" depart="70.88" departLane="best" from="540513775#3" to="540403194"/>
    <trip id="veh11" type="veh_passenger" depart="77.96" departLane="best" from="170794674#3" to="812739764#0"/>
    <trip id="veh12" type="veh_passenger" depart="85.05" departLane="best" from="-540663790#2" to="170795796#7"/>
    <trip id="veh13" type="veh_passenger" depart="92.14" departLane="best" from="171195342#1" to="-170795795#2"/>
    <trip id="veh14" type="veh_passenger" depart="99.23" departLane="best" from="-514868718#7" to="-540461009#0"/>
    <trip id="veh15" type="veh_passenger" depart="106.31" departLane="best" from="-170795800#11" to="-171196148#1"/>
    <trip id="veh16" type="veh_passenger" depart="113.40" departLane="best" departSpeed="max" from="170806091#0" to="-540663786#2"/>
    <trip id="veh17" type="veh_passenger" depart="120.49" departLane="best" from="-540461008#4" to="540996147#0"/>
    <trip id="veh18" type="veh_passenger" depart="127.58" departLane="best" departSpeed="max" from="170843710#0" to="170841285#3"/>
    <trip id="veh19" type="veh_passenger" depart="134.66" departLane="best" from="-171195368#2" to="540403194"/>
    <trip id="veh20" type="veh_passenger" depart="141.75" departLane="best" from="965965942#0" to="171195303#0"/>
    <trip id="veh21" type="veh_passenger" depart="148.84" departLane="best" from="-514868718#9" to="-170794674#8"/>
    <trip id="veh22" type="veh_passenger" depart="155.93" departLane="best" departSpeed="max" from="-540663768#1" to="-540461005#1"/>
    <trip id="veh23" type="veh_passenger" depart="163.02" departLane="best" from="-171196148#7" to="540996149#3"/>
    <trip id="veh24" type="veh_passenger" depart="170.10" departLane="best" from="170843710#4" to="-540663791#1"/>
    <trip id="veh25" type="veh_passenger" depart="177.19" departLane="best" from="540762166#4" to="-540996154#4"/>
    <trip id="veh26" type="veh_passenger" depart="184.28" departLane="best" from="-540461008#2" to="-514868718#0"/>
    <trip id="veh27" type="veh_passenger" depart="191.37" departLane="best" from="170795799#7" to="540762166#6"/>
    <trip id="veh28" type="veh_passenger" depart="198.45" departLane="best" departSpeed="max" from="-540762165#3" to="-171195922#5"/>
    <trip id="veh29" type="veh_passenger" depart="205.54" departLane="best" departSpeed="max" from="965965956#0" to="170794674#1"/>
    <trip id="veh30" type="veh_passenger" depart="212.63" departLane="best" from="-170795801#1" to="-170795795#3"/>
    <trip id="veh31" type="veh_passenger" depart="219.72" departLane="best" from="540461008#0" to="-540762179#1"/>
    <trip id="veh32" type="veh_passenger" depart="226.80" departLane="best" from="-170795798#1" to="-540663788#6"/>
    <trip id="veh33" type="veh_passenger" depart="233.89" departLane="best" from="812739757" to="540663788#5"/>
    <trip id="veh34" type="veh_passenger" depart="240.98" departLane="best" from="171195302#0" to="170795795#1"/>
    <trip id="veh35" type="veh_passenger" depart="248.07" departLane="best" from="-540461008#4" to="171195303#1"/>
    <trip id="veh36" type="veh_passenger" depart="255.15" departLane="best" from="-170806375#0" to="-540996138#2"/>
    <trip id="veh37" type="veh_passenger" depart="262.24" departLane="best" from="540663786#5" to="-540461004#1"/>
    <trip id="veh38" type="veh_passenger" depart="269.33" departLane="best" departSpeed="max" from="-965965942#2" to="-171195303#3"/>
    <trip id="veh39" type="veh_passenger" depart="276.42" departLane="best" from="-540513778#1" to="171195302#2"/>
    <trip id="veh40" type="veh_passenger" depart="283.51" departLane="best" from="170797669#2" to="-170843711#0"/>
    <trip id="veh41" type="veh_passenger" depart="290.59" departLane="best" from="-170794672#0" to="-540513778#1"/>
    <trip id="veh42" type="veh_passenger" depart="297.68" departLane="best" from="540663787#0" to="540996149#5"/>
    <trip id="veh43" type="veh_passenger" depart="304.77" departLane="best" from="-170795800#5" to="-965965956#0"/>
    <trip id="veh44" type="veh_passenger" depart="311.86" departLane="best" from="514868718#8" to="-170806091#0"/>
    <trip id="veh45" type="veh_passenger" depart="318.94" departLane="best" from="-540461008#2" to="540663790#4"/>
    <trip id="veh46" type="veh_passenger" depart="326.03" departLane="best" from="-540762178#2" to="-171195922#0"/>
    <trip id="veh47" type="veh_passenger" depart="333.12" departLane="best" from="170794674#7" to="540403194"/>
    <trip id="veh48" type="veh_passenger" depart="340.21" departLane="best" departSpeed="max" from="965965956#0" to="171195305#1"/>
    <trip id="veh49" type="veh_passenger" depart="347.29" departLane="best" from="-170843710#11" to="-171196009#5"/>
    <trip id="veh50" type="veh_passenger" depart="354.38" departLane="best" from="-540663782#0" to="170797669#3"/>
    <trip id="veh51" type="veh_passenger" depart="361.47" departLane="best" from="-514868719#0" to="-171196009#0"/>
    <trip id="veh52" type="veh_passenger" depart="368.56" departLane="best" from="-170795799#1" to="170843838#1"/>
    <trip id="veh53" type="veh_passenger" depart="375.64" departLane="best" departSpeed="max" from="-540403194" to="171195368#5"/>
    <trip id="veh54" type="veh_passenger" depart="382.73" departLane="best" from="-171196174#2" to="-170806375#2"/>
    <trip id="veh55" type="veh_passenger" depart="389.82" departLane="best" from="540513775#4" to="-171195305#5"/>
    <trip id="veh56" type="veh_passenger" depart="396.91" departLane="best" from="-170797669#3" to="-540996137#1"/>
    <trip id="veh57" type="veh_passenger" depart="403.99" departLane="best" from="171196009#1" to="171195921#1"/>
    <trip id="veh58" type="veh_passenger" depart="411.08" departLane="best" from="812750283#9" to="-170797669#0"/>
    <trip id="veh59" type="veh_passenger" depart="418.17" departLane="best" from="-540762166#2" to="-540663772#2"/>
    <trip id="veh60" type="veh_passenger" depart="425.26" departLane="best" from="540663781#1" to="-514868718#1"/>
    <trip id="veh61" type="veh_passenger" depart="432.35" departLane="best" from="-540461005#4" to="540986929#1"/>
    <trip id="veh62" type="veh_passenger" depart="439.43" departLane="best" from="965965957" to="540663784"/>
    <trip id="veh63" type="veh_passenger" depart="446.52" departLane="best" from="540663773" to="-171037912#0"/>
    <trip id="veh64" type="veh_passenger" depart="453.61" departLane="best" from="-812750281#1" to="-171195922#0"/>
    <trip id="veh65" type="veh_passenger" depart="460.70" departLane="best" from="-540663790#2" to="965965941#0"/>
    <trip id="veh66" type="veh_passenger" depart="467.78" departLane="best" from="-540461008#2" to="540513777#3"/>
    <trip id="veh67" type="veh_passenger" depart="474.87" departLane="best" departSpeed="max" from="-540996149#5" to="-540762179#2"/>
    <trip id="veh68" type="veh_passenger" depart="481.96" departLane="best" from="540996149#4" to="965965943"/>
    <trip id="veh69" type="veh_passenger" depart="489.05" departLane="best" from="-171195304#3" to="-540513775#1"/>
    <trip id="veh70" type="veh_passenger" depart="496.13" departLane="best" departSpeed="max" from="-965965942#2" to="540663787#3"/>
    <trip id="veh71" type="veh_passenger" depart="503.22" departLane="best" departSpeed="max" from="-514868719#2" to="-170806090"/>
    <trip id="veh72" type="veh_passenger" depart="510.31" departLane="best" from="540663788#6" to="-514868718#0"/>
    <trip id="veh73" type="veh_passenger" depart="517.40" departLane="best" from="-540762176#1" to="170795802#0"/>
    <trip id="veh74" type="veh_passenger" depart="524.48" departLane="best" from="170794673#4" to="540996145#0"/>
    <trip id="veh75" type="veh_passenger" depart="531.57" departLane="best" from="-171196148#0" to="514868718#3"/>
    <trip id="veh76" type="veh_passenger" depart="538.66" departLane="best" departSpeed="max" from="-540403194" to="-540663791#1"/>
    <trip id="veh77" type="veh_passenger" depart="545.75" departLane="best" departSpeed="max" from="-540663768#1" to="540461007#3"/>
    <trip id="veh78" type="veh_passenger" depart="552.84" departLane="best" from="965965956#2" to="965965943"/>
    <trip id="veh79" type="veh_passenger" depart="559.92" departLane="best" from="-170795799#4" to="-171195922#0"/>
    <trip id="veh80" type="veh_passenger" depart="567.01" departLane="best" from="-540461008#2" to="540996140#3"/>
    <trip id="veh81" type="veh_passenger" depart="574.10" departLane="best" from="540663787#3" to="540752702#0"/>
    <trip id="veh82" type="veh_passenger" depart="581.19" departLane="best" from="170797670#1" to="965965941#3"/>
    <trip id="veh83" type="veh_passenger" depart="588.27" departLane="best" from="170843710#2" to="-170794672#7"/>
    <trip id="veh84" type="veh_passenger" depart="595.36" departLane="best" from="-170843711#5" to="-170801185"/>
    <trip id="veh85" type="veh_passenger" depart="602.45" departLane="best" from="-170797670#7" to="170795797"/>
    <trip id="veh86" type="veh_passenger" depart="609.54" departLane="best" from="-540461009#4" to="170806375#2"/>
    <trip id="veh87" type="veh_passenger" depart="616.62" departLane="best" from="171195921#5" to="-171195920#1"/>
    <trip id="veh88" type="veh_passenger" depart="623.71" departLane="best" departSpeed="max" from="170806091#0" to="-540461004#2"/>
    <trip id="veh89" type="veh_passenger" depart="630.80" departLane="best" from="-812750283#3" to="540762174"/>
    <trip id="veh90" type="veh_passenger" depart="637.89" departLane="best" departSpeed="max" from="540663772#0" to="-170795802#0"/>
    <trip id="veh91" type="veh_passenger" depart="644.97" departLane="best" from="-540762179#0" to="-540461006#6"/>
    <trip id="veh92" type="veh_passenger" depart="652.06" departLane="best" from="-170794672#2" to="540513775#5"/>
    <trip id="veh93" type="veh_passenger" depart="659.15" departLane="best" departSpeed="max" from="170806091#0" to="-540461004#0"/>
    <trip id="veh94" type="veh_passenger" depart="666.24" departLane="best" from="-540986927#0" to="-170794672#9"/>
    <trip id="veh95" type="veh_passenger" depart="673.32" departLane="best" from="-170795799#6" to="540752702#1"/>
    <trip id="veh96" type="veh_passenger" depart="680.41" departLane="best" from="540656041#1" to="170795801#1"/>
    <trip id="veh97" type="veh_passenger" depart="687.50" departLane="best" from="-171195303#0" to="-170806091#0"/>
    <trip id="veh98" type="veh_passenger" depart="694.59" departLane="best" from="-540461005#3" to="-170797670#0"/>
    <trip id="veh99" type="veh_passenger" depart="701.68" departLane="best" from="-540762166#6" to="170843711#0"/>
    <trip id="veh100" type="veh_passenger" depart="708.76" departLane="best" departSpeed="max" from="540513776#0" to="540752702#1"/>
    <trip id="veh101" type="veh_passenger" depart="715.85" departLane="best" from="-170794674#16" to="540461004#4"/>
    <trip id="veh102" type="veh_passenger" depart="722.94" departLane="best" from="540461009#5" to="540663789#1"/>
    <trip id="veh103" type="veh_passenger" depart="730.03" departLane="best" from="-514868718#13" to="540663777"/>
    <trip id="veh104" type="veh_passenger" depart="737.11" departLane="best" from="-540996152#3" to="-540513776#0"/>
    <trip id="veh105" type="veh_passenger" depart="744.20" departLane="best" from="540996154#4" to="-540461007#1"/>
    <trip id="veh106" type="veh_passenger" depart="751.29" departLane="best" from="812750283#4" to="170795795#0"/>
    <trip id="veh107" type="veh_passenger" depart="758.38" departLane="best" from="540996137#0" to="-170801185"/>
    <trip id="veh108" type="veh_passenger" depart="765.46" departLane="best" from="540996152#4" to="-540461004#4"/>
    <trip id="veh109" type="veh_passenger" depart="772.55" departLane="best" from="171196009#0" to="-540513776#8"/>
    <trip id="veh110" type="veh_passenger" depart="779.64" departLane="best" departSpeed="max" from="170797669#0" to="170794674#11"/>
    <trip id="veh111" type="veh_passenger" depart="786.73" departLane="best" from="-540663791#2" to="170795800#4"/>
    <trip id="veh112" type="veh_passenger" depart="793.81" departLane="best" from="-540461006#4" to="205305449"/>
    <trip id="veh113" type="veh_passenger" depart="800.90" departLane="best" from="-170794672#1" to="540996137#1"/>
    <trip id="veh114" type="veh_passenger" depart="807.99" departLane="best" from="170794674#6" to="514868718#7"/>
    <trip id="veh115" type="veh_passenger" depart="815.08" departLane="best" from="171196148#1" to="171195920#0"/>
    <trip id="veh116" type="veh_passenger" depart="822.17" departLane="best" from="170843711#3" to="-540663766#0"/>
    <trip id="veh117" type="veh_passenger" depart="829.25" departLane="best" departSpeed="max" from="171195922#0" to="-540513775#5"/>
    <trip id="veh118" type="veh_passenger" depart="836.34" departLane="best" from="-170843710#8" to="-540762178#2"/>
    <trip id="veh119" type="veh_passenger" depart="843.43" departLane="best" from="540996137#2" to="171195921#5"/>
    <trip id="veh120" type="veh_passenger" depart="850.52" departLane="best" from="540663791#0" to="170843710#4"/>
    <trip id="veh121" type="veh_passenger" depart="857.60" departLane="best" from="170843710#3" to="-812739764#0"/>
    <trip id="veh122" type="veh_passenger" depart="864.69" departLane="best" from="-540996156#2" to="540762170#0"/>
    <trip id="veh123" type="veh_passenger" depart="871.78" departLane="best" from="540461008#4" to="-171037914#0"/>
    <trip id="veh124" type="veh_passenger" depart="878.87" departLane="best" departSpeed="max" from="170806091#0" to="-540663772#0"/>
    <trip id="veh125" type="veh_passenger" depart="885.95" departLane="best" from="-171196123#2" to="-170794674#16"/>
    <trip id="veh126" type="veh_passenger" depart="893.04" departLane="best" from="-540461004#3" to="-812750283#8"/>
    <trip id="veh127" type="veh_passenger" depart="900.13" departLane="best" from="170843710#4" to="-170794672#4"/>
    <trip id="veh128" type="veh_passenger" depart="907.22" departLane="best" from="-170797670#7" to="-540986927#0"/>
    <trip id="veh129" type="veh_passenger" depart="914.30" departLane="best" from="170843728#0" to="965965941#5"/>
    <trip id="veh130" type="veh_passenger" depart="921.39" departLane="best" from="540663789#0" to="170843710#11"/>
    <trip id="veh131" type="veh_passenger" depart="928.48" departLane="best" departSpeed="max" from="171195922#0" to="170794673#3"/>
    <trip id="veh132" type="veh_passenger" depart="935.57" departLane="best" from="540513777#9" to="170795796#3"/>
    <trip id="veh133" type="veh_passenger" depart="942.65" departLane="best" from="-540461005#1" to="171195302#1"/>
    <trip id="veh134" type="veh_passenger" depart="949.74" departLane="best" from="514868718#8" to="170794674#5"/>
    <trip id="veh135" type="veh_passenger" depart="956.83" departLane="best" departSpeed="max" from="170801185" to="-540461006#3"/>
    <trip id="veh136" type="veh_passenger" depart="963.92" departLane="best" from="-170795800#0" to="-540461008#2"/>
    <trip id="veh137" type="veh_passenger" depart="971.01" departLane="best" from="-514868719#1" to="171196123#5"/>
    <trip id="veh138" type="veh_passenger" depart="978.09" departLane="best" from="171195368#0" to="-170795798#2"/>
    <trip id="veh139" type="veh_passenger" depart="985.18" departLane="best" departSpeed="max" from="-540762174" to="-171195921#3"/>
    <trip id="veh140" type="veh_passenger" depart="992.27" departLane="best" from="170795799#6" to="171196148#0"/>
    <trip id="veh141" type="veh_passenger" depart="999.36" departLane="best" from="-540663790#4" to="-170794672#5"/>
    <trip id="veh142" type="veh_passenger" depart="1006.44" departLane="best" from="-540762176#1" to="540461006#5"/>
    <trip id="veh143" type="veh_passenger" depart="1013.53" departLane="best" from="170795794#3" to="170806375#0"/>
    <trip id="veh144" type="veh_passenger" depart="1020.62" departLane="best" from="-514868718#1" to="-171195922#5"/>
    <trip id="veh145" type="veh_passenger" depart="1027.71" departLane="best" from="-540996138#0" to="-170794674#5"/>
    <trip id="veh146" type="veh_passenger" depart="1034.79" departLane="best" from="-540762166#4" to="-171037426"/>
    <trip id="veh147" type="veh_passenger" depart="1041.88" departLane="best" departSpeed="max" from="-540996154#5" to="-170806091#0"/>
    <trip id="veh148" type="veh_passenger" depart="1048.97" departLane="best" from="-540762165#1" to="170795799#3"/>
    <trip id="veh149" type="veh_passenger" depart="1056.06" departLane="best" from="-170794674#2" to="171195303#3"/>
    <trip id="veh150" type="veh_passenger" depart="1063.14" departLane="best" from="-170843728#0" to="-540996156#3"/>
    <trip id="veh151" type="veh_passenger" depart="1070.23" departLane="best" from="-170795795#6" to="-540663788#3"/>
    <trip id="veh152" type="veh_passenger" depart="1077.32" departLane="best" from="514868718#2" to="-540663788#3"/>
    <trip id="veh153" type="veh_passenger" depart="1084.41" departLane="best" from="205305449" to="540663783#0"/>
    <trip id="veh154" type="veh_passenger" depart="1091.50" departLane="best" from="-540461006#1" to="-170795800#13"/>
    <trip id="veh155" type="veh_passenger" depart="1098.58" departLane="best" from="-170794674#10" to="170795795#4"/>
    <trip id="veh156" type="veh_passenger" depart="1105.67" departLane="best" from="965965957" to="-540663780#1"/>
    <trip id="veh157" type="veh_passenger" depart="1112.76" departLane="best" from="170843710#10" to="540461008#0"/>
    <trip id="veh158" type="veh_passenger" depart="1119.85" departLane="best" from="170795796#2" to="-171195922#4"/>
    <trip id="veh159" type="veh_passenger" depart="1126.93" departLane="best" from="171195305#6" to="540513775#0"/>
    <trip id="veh160" type="veh_passenger" depart="1134.02" departLane="best" from="-171195342#1" to="170841285#1"/>
    <trip id="veh161" type="veh_passenger" depart="1141.11" departLane="best" from="171196148#8" to="-170801185"/>
    <trip id="veh162" type="veh_passenger" depart="1148.20" departLane="best" from="540513776#5" to="540996156#2"/>
    <trip id="veh163" type="veh_passenger" depart="1155.28" departLane="best" from="-170797670#8" to="-170794674#17"/>
    <trip id="veh164" type="veh_passenger" depart="1162.37" departLane="best" from="540996152#0" to="-540663791#2"/>
    <trip id="veh165" type="veh_passenger" depart="1169.46" departLane="best" from="171195304#2" to="170843728#0"/>
    <trip id="veh166" type="veh_passenger" depart="1176.55" departLane="best" from="-170797670#2" to="540513775#6"/>
    <trip id="veh167" type="veh_passenger" depart="1183.63" departLane="best" from="-965965944#1" to="-540663778#0"/>
    <trip id="veh168" type="veh_passenger" depart="1190.72" departLane="best" from="-170797670#5" to="540996154#5"/>
    <trip id="veh169" type="veh_passenger" depart="1197.81" departLane="best" departSpeed="max" from="170806091#0" to="540663781#1"/>
    <trip id="veh170" type="veh_passenger" depart="1204.90" departLane="best" from="171196123#0" to="540996156#3"/>
    <trip id="veh171" type="veh_passenger" depart="1211.98" departLane="best" from="170794674#5" to="-965965944#0"/>
    <trip id="veh172" type="veh_passenger" depart="1219.07" departLane="best" from="-540996138#0" to="540403194"/>
    <trip id="veh173" type="veh_passenger" depart="1226.16" departLane="best" from="540663787#4" to="-205305449"/>
    <trip id="veh174" type="veh_passenger" depart="1233.25" departLane="best" from="-171196148#8" to="540656042#1"/>
    <trip id="veh175" type="veh_passenger" depart="1240.34" departLane="best" from="-540663783#0" to="540752702#1"/>
    <trip id="veh176" type="veh_passenger" depart="1247.42" departLane="best" from="171195305#8" to="-540461006#5"/>
    <trip id="veh177" type="veh_passenger" depart="1254.51" departLane="best" from="-170794672#9" to="540996149#5"/>
    <trip id="veh178" type="veh_passenger" depart="1261.60" departLane="best" from="-170795800#5" to="514868718#8"/>
    <trip id="veh179" type="veh_passenger" depart="1268.69" departLane="best" from="-812750283#7" to="540656041#1"/>
    <trip id="veh180" type="veh_passenger" depart="1275.77" departLane="best" from="171195304#4" to="-540513776#0"/>
    <trip id="veh181" type="veh_passenger" depart="1282.86" departLane="best" from="171196148#6" to="-540663766#0"/>
    <trip id="veh182" type="veh_passenger" depart="1289.95" departLane="best" from="171195342#0" to="-540461005#4"/>
    <trip id="veh183" type="veh_passenger" depart="1297.04" departLane="best" from="-540461006#1" to="-170806090"/>
    <trip id="veh184" type="veh_passenger" depart="1304.12" departLane="best" from="-171196009#1" to="-170805166"/>
    <trip id="veh185" type="veh_passenger" depart="1311.21" departLane="best" from="-171195921#5" to="-171195922#2"/>
    <trip id="veh186" type="veh_passenger" depart="1318.30" departLane="best" from="-812750281#0" to="514868719#2"/>
    <trip id="veh187" type="veh_passenger" depart="1325.39" departLane="best" from="812750281#0" to="170794674#9"/>
    <trip id="veh188" type="veh_passenger" depart="1332.47" departLane="best" from="171195305#4" to="-170806091#0"/>
    <trip id="veh189" type="veh_passenger" depart="1339.56" departLane="best" from="540663785#1" to="-965965957"/>
    <trip id="veh190" type="veh_passenger" depart="1346.65" departLane="best" from="-171195921#4" to="-170795795#7"/>
    <trip id="veh191" type="veh_passenger" depart="1353.74" departLane="best" from="540996137#2" to="-965965941#2"/>
    <trip id="veh192" type="veh_passenger" depart="1360.83" departLane="best" from="540513776#8" to="-540762165#1"/>
    <trip id="veh193" type="veh_passenger" depart="1367.91" departLane="best" from="-170795799#5" to="170843728#2"/>
    <trip id="veh194" type="veh_passenger" depart="1375.00" departLane="best" departSpeed="max" from="965965956#0" to="-170801185"/>
    <trip id="veh195" type="veh_passenger" depart="1382.09" departLane="best" from="170794673#4" to="-540996152#1"/>
    <trip id="veh196" type="veh_passenger" depart="1389.18" departLane="best" from="965965942#1" to="-540513776#0"/>
    <trip id="veh197" type="veh_passenger" depart="1396.26" departLane="best" from="171196123#6" to="540996149#5"/>
    <trip id="veh198" type="veh_passenger" depart="1403.35" departLane="best" from="-171196148#4" to="-171195922#0"/>
    <trip id="veh199" type="veh_passenger" depart="1410.44" departLane="best" from="-170794672#10" to="-540996152#1"/>
    <trip id="veh200" type="veh_passenger" depart="1417.53" departLane="best" from="-514868719#1" to="205305449"/>
    <trip id="veh201" type="veh_passenger" depart="1424.61" departLane="best" from="540461007#1" to="170843711#4"/>
    <trip id="veh202" type="veh_passenger" depart="1431.70" departLane="best" from="-540762179#1" to="170795795#9"/>
    <trip id="veh203" type="veh_passenger" depart="1438.79" departLane="best" departSpeed="max" from="170843710#0" to="540762175"/>
    <trip id="veh204" type="veh_passenger" depart="1445.88" departLane="best" from="-171195305#9" to="-540513776#2"/>
    <trip id="veh205" type="veh_passenger" depart="1452.96" departLane="best" from="-540513776#8" to="-170806091#0"/>
    <trip id="veh206" type="veh_passenger" depart="1460.05" departLane="best" from="171195304#0" to="171196148#4"/>
    <trip id="veh207" type="veh_passenger" depart="1467.14" departLane="best" from="540996138#1" to="170794672#8"/>
    <trip id="veh208" type="veh_passenger" depart="1474.23" departLane="best" from="-965965941#0" to="-170795800#12"/>
    <trip id="veh209" type="veh_passenger" depart="1481.31" departLane="best" from="-170795794#5" to="-540996137#2"/>
    <trip id="veh210" type="veh_passenger" depart="1488.40" departLane="best" departSpeed="max" from="-540663777" to="-514868718#10"/>
    <trip id="veh211" type="veh_passenger" depart="1495.49" departLane="best" from="540656041#2" to="170795800#3"/>
    <trip id="veh212" type="veh_passenger" depart="1502.58" departLane="best" from="540996147#0" to="965965957"/>
    <trip id="veh213" type="veh_passenger" depart="1509.67" departLane="best" from="540762166#6" to="-171195304#2"/>
    <trip id="veh214" type="veh_passenger" depart="1516.75" departLane="best" from="170795800#0" to="171037912#3"/>
    <trip id="veh215" type="veh_passenger" depart="1523.84" departLane="best" from="-540513776#8" to="540996149#5"/>
    <trip id="veh216" type="veh_passenger" depart="1530.93" departLane="best" departSpeed="max" from="-540663777" to="812739759"/>
    <trip id="veh217" type="veh_passenger" depart="1538.02" departLane="best" from="-540762166#4" to="170794674#14"/>
    <trip id="veh218" type="veh_passenger" depart="1545.10" departLane="best" from="965965941#5" to="171195305#9"/>
    <trip id="veh219" type="veh_passenger" depart="1552.19" departLane="best" from="170795794#0" to="-540762170#2"/>
    <trip id="veh220" type="veh_passenger" depart="1559.28" departLane="best" from="-171195922#1" to="-540663785#3"/>
    <trip id="veh221" type="veh_passenger" depart="1566.37" departLane="best" departSpeed="max" from="514868718#0" to="170843711#5"/>
    <trip id="veh222" type="veh_passenger" depart="1573.45" departLane="best" from="170795794#6" to="540996138#0"/>
    <trip id="veh223" type="veh_passenger" depart="1580.54" departLane="best" from="-540996138#2" to="171196148#3"/>
    <trip id="veh224" type="veh_passenger" depart="1587.63" departLane="best" from="-170843710#11" to="812739764#0"/>
    <trip id="veh225" type="veh_passenger" depart="1594.72" departLane="best" from="-171195305#1" to="170795796#6"/>
    <trip id="veh226" type="veh_passenger" depart="1601.80" departLane="best" from="-540996152#4" to="-170801185"/>
    <trip id="veh227" type="veh_passenger" depart="1608.89" departLane="best" from="-540461009#5" to="540663784"/>
    <trip id="veh228" type="veh_passenger" depart="1615.98" departLane="best" from="170795794#8" to="-540663789#1"/>
    <trip id="veh229" type="veh_passenger" depart="1623.07" departLane="best" from="540762170#2" to="170794673#6"/>
    <trip id="veh230" type="veh_passenger" depart="1630.16" departLane="best" departSpeed="max" from="-540762174" to="540996142"/>
    <trip id="veh231" type="veh_passenger" depart="1637.24" departLane="best" from="-965965957" to="540663778#3"/>
    <trip id="veh232" type="veh_passenger" depart="1644.33" departLane="best" from="170795800#10" to="965965956#2"/>
    <trip id="veh233" type="veh_passenger" depart="1651.42" departLane="best" from="-171195922#2" to="171196148#2"/>
    <trip id="veh234" type="veh_passenger" depart="1658.51" departLane="best" from="170795798#1" to="-171196148#1"/>
    <trip id="veh235" type="veh_passenger" depart="1665.59" departLane="best" from="171196148#4" to="171196174#0"/>
    <trip id="veh236" type="veh_passenger" depart="1672.68" departLane="best" from="170795800#13" to="540663790#1"/>
    <trip id="veh237" type="veh_passenger" depart="1679.77" departLane="best" from="170794674#0" to="-540996154#2"/>
    <trip id="veh238" type="veh_passenger" depart="1686.86" departLane="best" departSpeed="max" from="171195922#0" to="-540762166#8"/>
    <trip id="veh239" type="veh_passenger" depart="1693.94" departLane="best" departSpeed="max" from="-540996154#5" to="812739759"/>
    <trip id="veh240" type="veh_passenger" depart="1701.03" departLane="best" departSpeed="max" from="171195922#0" to="540461008#5"/>
    <trip id="veh241" type="veh_passenger" depart="1708.12" departLane="best" from="171196148#7" to="-540996138#1"/>
    <trip id="veh242" type="veh_passenger" depart="1715.21" departLane="best" from="-170797670#1" to="171037912#0"/>